     0,   100.0,    32,     0,     0,   60.00 / PSS(R)E 32
 **Sistema benchmark de 232 barras baseado no subsistema Nord
 este
     1,'PAF1-1UHE013',  13.8000,  2,  200,    1,    1,   0.970000,    -7.4000
     4,'PAF2A1UHE013',  13.8000,  2,  200,    1,    1,   0.974000,    -8.7000
     5,'PAF2A2UHE013',  13.8000,  2,  200,    1,    1,   0.974000,    -8.3000
     6,'PAF2A3UHE013',  13.8000,  2,  200,    1,    1,   0.978000,    -5.9000
     7,'PAF2B1UHE013',  13.8000,  2,  200,    1,    1,   0.985000,   -11.0000
     8,'PAF2B2UHE013',  13.8000,  2,  200,    1,    1,   0.988000,    -9.6000
     9,'PAF2B3UHE013',  13.8000,  2,  200,    1,    1,   0.987000,    -9.6000
    10,'PAF3-1UHE013',  13.8000,  2,  200,    1,    1,   0.993000,    -9.6000
    11,'PAF3-2UHE013',  13.8000,  2,  200,    1,    1,   0.977000,    -9.4000
    14,'PAF4-1UHE013',  13.8000,  3,  200,    1,    1,   0.972000,     0.0000
    21,'SOBRA1UHE013',  13.8000,  2,  200,    1,    1,   0.994000,   -25.0000
    28,'ASALE1UHE013',  13.8000,  2,  200,    1,    1,   0.988000,    -9.7000
    29,'ASALE2UHE013',  13.8000,  2,  200,    1,    1,   0.986000,   -10.0000
    33,'LGONZ1UHE013',  13.8000,  2,  200,    1,    1,   1.038000,   -14.0000
    34,'LGONZ2UHE013',  13.8000,  2,  200,    1,    1,   1.038000,   -14.0000
    48,'PCAVA1UHE013',  13.8000,  2,  200,    1,    1,   1.000000,   -47.0000
    80,'ESTREIUHE013',  13.8000,  2,  200,    1,    1,   1.014000,   -37.0000
    89,'XINGO1UHE013',  13.8000,  2,  200,    1,    1,   0.981000,   -11.0000
    95,'ITAPE1UHE013',  13.8000,  2,  200,    1,    1,   0.992000,   -58.0000
   104,'PERNA3UTE013',  13.8000,  4,  200,    1,    1,   1.015000,    -9.5000
   160,'TERPEGUTE013',  13.8000,  2,  200,    1,    1,   1.013000,   -12.0000
   161,'TERPEVUTE013',  13.8000,  2,  200,    1,    1,   1.009000,   -13.0000
   170,'CFURTAUTE013',  13.8000,  4,  200,    1,    1,   1.009000,   -37.0000
   200,'PAF3-A-BA230', 230.0000,  1,  200,    1,    1,   1.020000,   -14.0000
   202,'JUAZE2-BA230', 230.0000,  1,  200,    1,    1,   1.010000,   -27.0000
   203,'S.BONF-BA230', 230.0000,  1,  200,    1,    1,   0.993000,   -20.0000
   206,'SOBRAD-BA230', 230.0000,  1,  200,    1,    1,   1.003000,   -27.0000
   218,'CAUIPE-CE230', 230.0000,  1,  200,    1,    1,   0.993000,   -12.0000
   220,'BOM-NO-PE230', 230.0000,  1,  200,    1,    1,   1.021000,   -20.0000
   221,'MILAGR-CE230', 230.0000,  1,  200,    1,    1,   1.015000,   -18.0000
   222,'BANABU-CE230', 230.0000,  1,  200,    1,    1,   0.995000,   -13.0000
   224,'MOSSR2-RN230', 230.0000,  1,  200,    1,    1,   0.986000,     0.2520
   228,'TERES--PI230', 230.0000,  1,  200,    1,    1,   1.003000,   -36.0000
   231,'MIRAND-MA230', 230.0000,  1,  200,    1,    1,   0.992000,   -39.0000
   237,'S.J.PI-PI230', 230.0000,  1,  200,    1,    1,   1.000000,   -33.0000
   238,'P.DUTR-MA230', 230.0000,  1,  200,    1,    1,   1.021000,   -40.0000
   239,'IMPERA-MA230', 230.0000,  1,  200,    1,    1,   1.023000,   -46.0000
   240,'ANGELI-PE230', 230.0000,  1,  200,    1,    1,   1.008000,   -18.0000
   241,'RECIFE-PE230', 230.0000,  1,  200,    1,    1,   1.012000,   -20.0000
   244,'CGRD2B-PB230', 230.0000,  1,  200,    1,    1,   0.991000,   -12.0000
   247,'GOIANI-PE230', 230.0000,  1,  200,    1,    1,   0.985000,   -21.0000
   250,'MIRUEI-PE230', 230.0000,  1,  200,    1,    1,   0.994000,   -22.0000
   251,'AÇU2---RN230', 230.0000,  1,  200,    1,    1,   0.986000,     6.0100
   258,'PENEDO-AL230', 230.0000,  1,  200,    1,    1,   1.008000,   -31.0000
   259,'MACEIO-AL230', 230.0000,  1,  200,    1,    1,   1.010000,   -23.0000
   260,'PAU-FE-PE230', 230.0000,  1,  200,    1,    1,   1.013000,   -19.0000
   269,'EUNAPO-BA230', 230.0000,  1,  200,    1,    1,   0.993000,   -66.0000
   272,'CATU---BA230', 230.0000,  1,  200,    1,    1,   0.993000,   -47.0000
   273,'JARDIM-SE230', 230.0000,  1,  200,    1,    1,   1.013000,   -24.0000
   276,'FUNIL--BA230', 230.0000,  1,  200,    1,    1,   0.997000,   -61.0000
   279,'COTEGI-BA230', 230.0000,  1,  200,    1,    1,   0.985000,   -48.0000
   284,'CAMAC4-BA230', 230.0000,  1,  200,    1,    1,   1.005000,   -46.0000
   288,'IBICOA-BA230', 230.0000,  1,  200,    1,    1,   1.005000,   -61.0000
   289,'SAPEAC-BA230', 230.0000,  1,  200,    1,    1,   1.010000,   -49.0000
   290,'PARAIS-RN230', 230.0000,  1,  200,    1,    1,   0.980000,     0.9920
   300,'PAF3-B-BA230', 230.0000,  1,  200,    1,    1,   1.015000,   -15.0000
   325,'FORTA2-CE230', 230.0000,  1,  200,    1,    1,   0.993000,   -14.0000
   326,'SOBRA3-CE230', 230.0000,  1,  200,    1,    1,   0.991000,   -20.0000
   327,'FORTAGUTE013',  13.8000,  2,  200,    1,    1,   1.006000,    -7.0000
   329,'BESPER-MA230', 230.0000,  1,  200,    1,    1,   1.014000,   -34.0000
   332,'SLUIS2-MA230', 230.0000,  1,  200,    1,    1,   1.010000,   -37.0000
   339,'TERCEGUTE013',  13.8000,  2,  200,    1,    1,   1.002000,    -5.1000
   346,'NATAL3-RN230', 230.0000,  1,  200,    1,    1,   0.998000,    -2.3000
   349,'GARANH-PE230', 230.0000,  1,  200,    1,    1,   1.005000,   -17.0000
   353,'SUAPE2-PE230', 230.0000,  1,  200,    1,    1,   1.008000,   -19.0000
   355,'MCHAP2-BA230', 230.0000,  1,  200,    1,    1,   0.997000,   -38.0000
   364,'LNOVA2-RN230', 230.0000,  1,  200,    1,    1,   0.981000,     4.6300
   365,'IBIAP2-CE230', 230.0000,  1,  200,    1,    1,   1.013000,   -25.0000
   385,'BJLAP2-BA230', 230.0000,  1,  200,    1,    1,   0.994000,   -59.0000
   387,'REGUA--BA230', 230.0000,  1,  200,    1,    1,   1.007000,   -63.0000
   407,'RG-CO1CAP500', 500.0000,  2,  200,    1,    1,   1.022000,   -33.0000
   433,'VDOACUUTE013',  13.8000,  2,  200,    1,    1,   1.003000,    15.4000
   453,'RG-CO2CAP500', 500.0000,  2,  200,    1,    1,   1.021000,   -33.0000
   472,'OLINDI-BA230', 230.0000,  1,  200,    1,    1,   1.007000,   -40.0000
   500,'PAF4---BA500', 500.0000,  1,  200,    1,    1,   1.048000,   -16.0000
   505,'L.GONZ-PE500', 500.0000,  1,  200,    1,    1,   1.052000,   -18.0000
   506,'SOBRAD-BA500', 500.0000,  1,  200,    1,    1,   1.046000,   -29.0000
   521,'MILAGR-CE500', 500.0000,  1,  200,    1,    1,   1.022000,   -17.0000
   523,'JCMR3--RN500', 500.0000,  1,  200,    1,    1,   1.029000,     4.0500
   525,'FORTA2-CE500', 500.0000,  1,  200,    1,    1,   1.031000,   -13.0000
   526,'SOBRA3-CE500', 500.0000,  1,  200,    1,    1,   1.036000,   -20.0000
   528,'TERES2-PI500', 500.0000,  1,  200,    1,    1,   1.051000,   -33.0000
   529,'BESPER-MA500', 500.0000,  1,  200,    1,    1,   1.048000,   -34.0000
   532,'SLUIS2-MA500', 500.0000,  1,  200,    1,    1,   1.020000,   -36.0000
   537,'S.J.PI-PI500', 500.0000,  1,  200,    1,    1,   1.052000,   -32.0000
   538,'P.DUTR-MA500', 500.0000,  1,  200,    1,    1,   1.065000,   -38.0000
   539,'IMPERA-MA500', 500.0000,  2,  200,    1,    1,   1.067000,   -46.0000
   540,'ANGEL2-PE500', 500.0000,  1,  200,    1,    1,   1.043000,   -17.0000
   541,'RECIFE-PE500', 500.0000,  1,  200,    1,    1,   1.031000,   -19.0000
   542,'MESSIA-AL500', 500.0000,  1,  200,    1,    1,   1.014000,   -21.0000
   544,'CGRD3--PB500', 500.0000,  1,  200,    1,    1,   1.021000,   -10.0000
   549,'GARANH-PE500', 500.0000,  1,  200,    1,    1,   1.046000,   -17.0000
   555,'MCHAP2-BA500', 500.0000,  1,  200,    1,    1,   1.028000,   -41.0000
   559,'ACAILA-MA500', 500.0000,  1,  200,    1,    1,   1.069000,   -45.0000
   564,'SALOPE-MA500', 500.0000,  1,  200,    1,    1,   1.055000,   -33.0000
   565,'MIRAND-MA500', 500.0000,  1,  200,    1,    1,   1.037000,   -36.0000
   566,'PAU-FE-PE500', 500.0000,  1,  200,    1,    1,   1.035000,   -17.0000
   573,'JARDIM-SE500', 500.0000,  1,  200,    1,    1,   1.029000,   -23.0000
   582,'OLINDI-BA500', 500.0000,  1,  200,    1,    1,   1.025000,   -33.0000
   584,'CAMAC4-BA500', 500.0000,  1,  200,    1,    1,   1.002000,   -43.0000
   585,'BJLAP2-BA500', 500.0000,  2,  200,    1,    1,   1.034000,   -58.0000
   587,'R.EGUA-BA500', 500.0000,  2,  200,    1,    1,   1.036000,   -62.0000
   711,'IM-CO1CAP500', 500.0000,  2,  200,    1,    1,   1.015000,   -38.0000
   715,'IM-CO2CAP500', 500.0000,  2,  200,    1,    1,   1.012000,   -38.0000
   736,'IP2TCS-MA500', 500.0000,  1,  200,    1,    1,   1.043000,   -43.0000
   846,'BARRER-BA500', 500.0000,  1,  200,    1,    1,   1.030000,   -57.0000
   857,'RE-LUZCAP500', 500.0000,  2,  200,    1,    1,   1.028000,   -54.0000
 11001,'PPECE1UTE020',  20.0000,  2,  200,    1,    1,   1.004000,    -4.3000
 11003,'CSP---UTE013',  13.8000,  4,  200,    1,    1,   1.003000,    -7.0000
 11010,'PPECE2UTE020',  20.0000,  2,  200,    1,    1,   1.003000,    -4.2000
 11050,'B.JESU-PI230', 230.0000,  1,  200,    1,    1,   1.004000,   -48.0000
 11149,'PSER1VUTE024',  23.0000,  2,  200,    1,    1,   0.989000,   -16.0000
 11150,'PSER1GUTE025',  23.0000,  2,  200,    1,    1,   0.984000,   -18.0000
 11225,'PECEM2-CE230', 230.0000,  1,  200,    1,    1,   0.999000,   -12.0000
 11246,'CMRIM2-RN230', 230.0000,  1,  200,    1,    1,   1.000000,     1.7500
 11260,'GOURO2-BA230', 230.0000,  1,  200,    1,    1,   1.001000,   -46.0000
 11261,'OUROL2-BA230', 230.0000,  1,  200,    1,    1,   1.003000,   -33.0000
 11265,'AÇU3---RN230', 230.0000,  1,  200,    1,    1,   0.982000,     4.8300
 11394,'IGAPO3-BA230', 230.0000,  1,  200,    1,    1,   1.004000,   -62.0000
 11500,'SLUZI2-PB500', 500.0000,  1,  200,    1,    1,   1.041000,    -9.5000
 11525,'PECEM2-CE500', 500.0000,  1,  200,    1,    1,   1.044000,   -14.0000
 11546,'CMRIM2-RN500', 500.0000,  1,  200,    1,    1,   1.038000,     1.1700
 11560,'GOURO2-BA500', 500.0000,  1,  200,    1,    1,   1.036000,   -48.0000
 11561,'OUROL2-BA500', 500.0000,  1,  200,    1,    1,   1.026000,   -36.0000
 11563,'M.NETO-BA500', 500.0000,  2,  200,    1,    1,   1.031000,   -74.0000
 11582,'JUAZE3-BA500', 500.0000,  1,  200,    1,    1,   1.043000,   -28.0000
 11594,'IGAPO3-BA500', 500.0000,  2,  200,    1,    1,   1.037000,   -64.0000
 11612,'POCOE3-BA500', 500.0000,  2,  200,    1,    1,   1.029000,   -62.0000
 12201,'CNOVO2-PI230', 230.0000,  1,  200,    1,    1,   1.003000,   -19.0000
 12312,'QNOVA2-PI500', 500.0000,  1,  200,    1,    1,   1.044000,   -28.0000
 12318,'BURITI-BA500', 500.0000,  1,  200,    1,    1,   1.063000,   -45.0000
 12321,'JCMR3--RN230', 230.0000,  1,  200,    1,    1,   1.000000,     5.9200
 12501,'CNOVO2-PI500', 500.0000,  1,  200,    1,    1,   1.061000,   -24.0000
 12901,'PARNAI-PI500', 500.0000,  1,  200,    1,    1,   1.033000,   -27.0000
 12902,'ACARA3-CE500', 500.0000,  1,  200,    1,    1,   1.035000,   -21.0000
 12905,'TIANG2-CE500', 500.0000,  1,  200,    1,    1,   1.033000,   -24.0000
 12999,'JPSII--PB230', 230.0000,  1,  200,    1,    1,   0.995000,   -21.0000
 13003,'MARA4GUTE013',  13.8000,  2,  200,    1,    1,   1.012000,   -27.0000
 13008,'MARA5GUTE013',  13.8000,  2,  200,    1,    1,   1.011000,   -27.0000
 13016,'MARA3GUTE013',  13.8000,  2,  200,    1,    1,   1.000000,   -27.0000
 13022,'MARA3VUTE013',  13.8000,  2,  200,    1,    1,   0.993000,   -26.0000
 13029,'N.VE.GUTE013',  13.8000,  2,  200,    1,    1,   1.008000,   -26.0000
 13033,'PARNAVUTE013',  18.0000,  2,  200,    1,    1,   1.028000,   -30.0000
 14480,'S.LUZ3-MA500', 500.0000,  1,  200,    1,    1,   1.035000,   -41.0000
 55412,'ACARA2-CE230', 230.0000,  1,  200,    1,    1,   1.014000,   -20.0000
 55443,'ITAREM-CE034',  34.5000,  2,  200,    1,    1,   0.998000,   -15.0000
 55765,'DNPARA-CE034',  34.5000,  2,  200,    1,    1,   1.012000,    14.5000
 55775,'CFAISA-CE034',  34.5000,  2,  200,    1,    1,   0.997000,    -2.7000
 55813,'SERROT-CE034',  34.5000,  2,  200,    1,    1,   0.997000,    -2.1000
 56094,'ALEX---CE034',  34.5000,  2,  200,    1,    1,   1.000000,    14.0000
 56285,'AMAZB1-RN034',  34.5000,  2,  200,    1,    1,   0.998000,    14.4000
 56311,'MEL2---RN034',  34.5000,  2,  200,    1,    1,   1.000000,    36.9000
 56455,'ALEGRI-RN034',  34.5000,  2,  200,    1,    1,   0.996000,    14.8000
 56477,'MEL1---RN034',  34.5000,  2,  200,    1,    1,   1.000000,    35.2000
 56478,'MEL2---RN034',  34.5000,  2,  200,    1,    1,   1.000000,    35.2000
 56515,'VSTERZ-RN034',  34.5000,  2,  200,    1,    1,   0.999000,    35.8000
 56532,'VSRICA-RN034',  34.5000,  2,  200,    1,    1,   0.999000,    33.7000
 56574,'SCLARA-RN034',  34.5000,  2,  200,    1,    1,   0.998000,    18.8000
 56606,'ASABRA-RN034',  34.5000,  2,  200,    1,    1,   0.997000,    11.6000
 56622,'C.PRE2-RN034',  34.5000,  2,  200,    1,    1,   0.999000,    13.5000
 56691,'CUTIA--RN034',  34.5000,  2,  200,    1,    1,   0.998000,    17.8000
 56699,'CUMARU-RN034',  34.5000,  2,  200,    1,    1,   0.998000,    12.7000
 56720,'CPFL---RN034',  34.5000,  2,  200,    1,    1,   0.998000,    16.3000
 56731,'JERUSA-RN034',  34.5000,  2,  200,    1,    1,   1.000000,     9.4700
 56749,'RIOVT2-RN034',  34.5000,  2,  200,    1,    1,   1.000000,     6.9900
 56755,'ARIZON-BA034',  34.5000,  2,  200,    1,    1,   1.000000,   -27.0000
 56760,'MRONCA-RN034',  34.5000,  2,  200,    1,    1,   0.998000,    11.8000
 56766,'ANGICO-RN034',  34.5000,  2,  200,    1,    1,   0.997000,    12.0000
 56778,'MACAU--RN034',  34.5000,  2,  200,    1,    1,   0.998000,    12.8000
 57740,'SRMNOV-RN034',  34.5000,  2,  200,    1,    1,   0.998000,    16.7000
 58007,'CAETE2-PE034',  34.5000,  2,  200,    1,    1,   0.998000,   -11.0000
 58027,'SCLEME-PE034',  34.5000,  2,  200,    1,    1,   0.998000,    -7.2000
 58048,'TUCANO-BA034',  34.5000,  2,  200,    1,    1,   1.000000,   -29.0000
 58144,'BLMNTE-PE034',  34.5000,  2,  200,    1,    1,   1.004000,    -5.1000
 58160,'LABAR1-PI034',  34.5000,  2,  200,    1,    1,   0.998000,   -30.0000
 58194,'LGVN-A-PI034',  34.5000,  2,  200,    1,    1,   1.000000,   -25.0000
 58196,'LGVN-B-PI034',  34.5000,  2,  200,    1,    1,   1.000000,   -25.0000
 58197,'LGVN-C-PI034',  34.5000,  2,  200,    1,    1,   0.998000,   -13.0000
 58207,'CHAPA1-PI034',  34.5000,  2,  200,    1,    1,   0.997000,    -9.4000
 58216,'CHAPA2-PI034',  34.5000,  2,  200,    1,    1,   0.998000,    -8.4000
 58226,'CHAPA3-PI034',  34.5000,  2,  200,    1,    1,   0.998000,    -7.2000
 58233,'CHAPA4-PI034',  34.5000,  2,  200,    1,    1,   0.998000,    -9.8000
 58239,'VEDPI2-PI034',  34.5000,  2,  200,    1,    1,   0.998000,   -14.0000
 58249,'CDNHA1-PI034',  34.5000,  2,  200,    1,    1,   0.999000,   -14.0000
 58272,'SBASIL-PI034',  34.5000,  2,  200,    1,    1,   0.997000,    -4.0000
 58289,'NORTE--PB034',  34.5000,  2,  200,    1,    1,   0.997000,     1.9900
 58294,'VEDPI3-PI034',  34.5000,  2,  200,    1,    1,   0.998000,   -14.0000
 58296,'SUL2---PB034',  34.5000,  2,  200,    1,    1,   0.997000,     1.7500
 58315,'OITIS--PI034',  34.5000,  2,  200,    1,    1,   0.999000,   -24.0000
 58507,'SSERID-PB034',  34.5000,  2,  200,    1,    1,   1.008000,    -6.4000
 58513,'SSER1A-PB034',  34.5000,  2,  200,    1,    1,   1.000000,    -5.5000
 58514,'OESRDO-RN034',  34.5000,  2,  200,    1,    1,   0.999000,    -6.0000
 58624,'DELFIN-BA034',  34.5000,  2,  200,    1,    1,   0.999000,   -17.0000
 58690,'FUTURA-BA034',  34.5000,  2,  200,    1,    1,   1.006000,   -15.0000
 58786,'LGVEN3-PI034',  34.5000,  2,  200,    1,    1,   0.999000,   -23.0000
 58806,'C.FORM-BA034',  34.5000,  2,  200,    1,    1,   0.998000,   -19.0000
 58824,'UMBURA-BA034',  34.5000,  2,  200,    1,    1,   0.998000,   -26.0000
 58832,'C.LAR1-BA034',  34.5000,  2,  200,    1,    1,   0.998000,   -24.0000
 58852,'BABILS-BA034',  34.5000,  2,  200,    1,    1,   0.998000,   -27.0000
 58871,'C.LAR2-BA034',  34.5000,  2,  200,    1,    1,   0.999000,   -24.0000
 59002,'FLARG2-BA034',  34.5000,  2,  200,    1,    1,   0.998000,   -11.0000
 59057,'MCHAPS-BA034',  34.5000,  2,  200,    1,    1,   0.997000,   -33.0000
 59076,'SBABIL-BA034',  34.5000,  2,  200,    1,    1,   0.997000,   -27.0000
 59087,'MCHAS2-BA034',  34.5000,  2,  200,    1,    1,   1.000000,   -37.0000
 59130,'VSEUGE-BA034',  34.5000,  2,  200,    1,    1,   0.999000,   -43.0000
 59176,'SGONCA-PI034',  34.5000,  2,  200,    1,    1,   1.004000,   -36.0000
 59189,'SDSER3-BA034',  34.5000,  2,  200,    1,    1,   1.001000,   -38.0000
 59204,'VSVTR--BA034',  34.5000,  2,  200,    1,    1,   0.998000,   -37.0000
 59316,'ARACAS-BA034',  34.5000,  2,  200,    1,    1,   0.998000,   -57.0000
 59512,'VBAHI3-BA034',  34.5000,  2,  200,    1,    1,   0.998000,   -30.0000
 59521,'AURA---BA034',  34.5000,  2,  200,    1,    1,   0.998000,   -56.0000
 59524,'CAETNO-BA034',  34.5000,  2,  200,    1,    1,   0.998000,   -58.0000
 70001,'FICT01      ', 500.0000,  1,  200,    1,    1,   0.988000,    -0.7800
 70002,'FICT02      ', 500.0000,  1,  200,    1,    1,   0.989000,    -0.7300
 70003,'FICT03      ', 500.0000,  1,  200,    1,    1,   1.003000,   -60.0000
 70004,'FICT04      ', 500.0000,  1,  200,    1,    1,   0.997000,   -59.0000
 70005,'FICT05      ', 500.0000,  1,  200,    1,    1,   1.013000,   -53.0000
 70006,'FICT06      ', 500.0000,  1,  200,    1,    1,   0.983000,     1.1700
 70007,'FICT07      ', 500.0000,  1,  200,    1,    1,   0.996000,     4.6100
 70008,'FICT08      ', 500.0000,  1,  200,    1,    1,   0.986000,     1.4400
 70009,'FICT09      ', 500.0000,  1,  200,    1,    1,   0.996000,   -58.0000
 70010,'FICT10      ', 500.0000,  1,  200,    1,    1,   1.011000,   -51.0000
 70011,'FICT10      ', 500.0000,  1,  200,    1,    1,   1.011000,   -51.0000
 70012,'FICT12      ', 500.0000,  1,  200,    1,    1,   1.010000,   -49.0000
 70014,'FICT14      ', 500.0000,  1,  200,    1,    1,   1.021000,   -27.0000
 70015,'FICT15      ', 230.0000,  1,  200,    1,    1,   0.994000,   -11.0000
 70016,'FICT16      ', 230.0000,  1,  200,    1,    1,   0.991000,   -11.0000
 70018,'FICT18      ', 230.0000,  1,  200,    1,    1,   0.985000,   -48.0000
 70019,'FICT19      ', 230.0000,  1,  200,    1,    1,   0.985000,   -48.0000
 70021,'FICT21      ', 230.0000,  1,  200,    1,    1,   0.985000,   -48.0000
 70022,'FICT22      ', 230.0000,  1,  200,    1,    1,   0.985000,   -48.0000
 70023,'FICT23      ', 230.0000,  1,  200,    1,    1,   0.985000,   -48.0000
 0  / END OF BUS DATA, BEGIN LOAD DATA
