     0,   100.0,    32,     0,     0,   60.00 / PSS(R)E 32
 **Sistema benchmark de 232 barras baseado no subsistema Nord
 este
     1,'PAF1-1UHE013',  13.8000,  2,  200,    1,    1,   0.970000,     0.2350
     4,'PAF2A1UHE013',  13.8000,  2,  200,    1,    1,   0.974000,    -0.7200
     5,'PAF2A2UHE013',  13.8000,  2,  200,    1,    1,   0.974000,    -0.4000
     6,'PAF2A3UHE013',  13.8000,  2,  200,    1,    1,   0.978000,     1.9900
     7,'PAF2B1UHE013',  13.8000,  2,  200,    1,    1,   0.985000,    -2.7000
     8,'PAF2B2UHE013',  13.8000,  2,  200,    1,    1,   0.988000,    -1.6000
     9,'PAF2B3UHE013',  13.8000,  2,  200,    1,    1,   0.987000,    -1.7000
    10,'PAF3-1UHE013',  13.8000,  2,  200,    1,    1,   0.993000,    -1.7000
    11,'PAF3-2UHE013',  13.8000,  2,  200,    1,    1,   0.977000,    -1.8000
    14,'PAF4-1UHE013',  13.8000,  3,  200,    1,    1,   0.972000,     0.0000
    21,'SOBRA1UHE013',  13.8000,  2,  200,    1,    1,   0.994000,   -14.0000
    28,'ASALE1UHE013',  13.8000,  2,  200,    1,    1,   0.988000,    -1.8000
    29,'ASALE2UHE013',  13.8000,  2,  200,    1,    1,   0.986000,    -2.6000
    33,'LGONZ1UHE013',  13.8000,  2,  200,    1,    1,   1.038000,    -5.7000
    34,'LGONZ2UHE013',  13.8000,  2,  200,    1,    1,   1.038000,    -5.7000
    48,'PCAVA1UHE013',  13.8000,  2,  200,    1,    1,   1.000000,   -38.0000
    80,'ESTREIUHE013',  13.8000,  2,  200,    1,    1,   1.014000,   -34.0000
    89,'XINGO1UHE013',  13.8000,  2,  200,    1,    1,   0.981000,     8.0100
    95,'ITAPE1UHE013',  13.8000,  2,  200,    1,    1,   0.992000,   -48.0000
   104,'PERNA3UTE013',  13.8000,  4,  200,    1,    1,   1.015000,    -9.5000
   160,'TERPEGUTE013',  13.8000,  2,  200,    1,    1,   1.013000,    -4.7000
   161,'TERPEVUTE013',  13.8000,  2,  200,    1,    1,   1.009000,    -5.3000
   170,'CFURTAUTE013',  13.8000,  4,  200,    1,    1,   1.009000,   -37.0000
   200,'PAF3-A-BA230', 230.0000,  1,  200,    1,    1,   1.020000,    -6.4000
   202,'JUAZE2-BA230', 230.0000,  1,  200,    1,    1,   1.033000,   -12.0000
   203,'S.BONF-BA230', 230.0000,  1,  200,    1,    1,   1.018000,    -9.9000
   206,'SOBRAD-BA230', 230.0000,  1,  200,    1,    1,   1.003000,   -14.0000
   218,'CAUIPE-CE230', 230.0000,  1,  200,    1,    1,   0.993000,    -2.9000
   220,'BOM-NO-PE230', 230.0000,  1,  200,    1,    1,   1.029000,    -4.0000
   221,'MILAGR-CE230', 230.0000,  1,  200,    1,    1,   1.015000,    -5.7000
   222,'BANABU-CE230', 230.0000,  1,  200,    1,    1,   1.011000,     1.9900
   224,'MOSSR2-RN230', 230.0000,  1,  200,    1,    1,   1.010000,    12.8000
   228,'TERES--PI230', 230.0000,  1,  200,    1,    1,   1.005000,   -29.0000
   231,'MIRAND-MA230', 230.0000,  1,  200,    1,    1,   0.992000,   -33.0000
   237,'S.J.PI-PI230', 230.0000,  1,  200,    1,    1,   1.000000,   -23.0000
   238,'P.DUTR-MA230', 230.0000,  1,  200,    1,    1,   1.021000,   -34.0000
   239,'IMPERA-MA230', 230.0000,  1,  200,    1,    1,   1.023000,   -43.0000
   240,'ANGELI-PE230', 230.0000,  1,  200,    1,    1,   1.008000,   -10.0000
   241,'RECIFE-PE230', 230.0000,  1,  200,    1,    1,   1.012000,   -13.0000
   244,'CGRD2B-PB230', 230.0000,  1,  200,    1,    1,   0.991000,    -3.9000
   247,'GOIANI-PE230', 230.0000,  1,  200,    1,    1,   0.978000,   -13.0000
   250,'MIRUEI-PE230', 230.0000,  1,  200,    1,    1,   0.994000,   -15.0000
   251,'AÇU2---RN230', 230.0000,  1,  200,    1,    1,   1.006000,    15.2000
   258,'PENEDO-AL230', 230.0000,  1,  200,    1,    1,   1.008000,   -26.0000
   259,'MACEIO-AL230', 230.0000,  1,  200,    1,    1,   1.010000,   -16.0000
   260,'PAU-FE-PE230', 230.0000,  1,  200,    1,    1,   1.013000,   -11.0000
   269,'EUNAPO-BA230', 230.0000,  1,  200,    1,    1,   0.994000,   -56.0000
   272,'CATU---BA230', 230.0000,  1,  200,    1,    1,   0.994000,   -40.0000
   273,'JARDIM-SE230', 230.0000,  1,  200,    1,    1,   1.013000,   -19.0000
   276,'FUNIL--BA230', 230.0000,  1,  200,    1,    1,   0.999000,   -52.0000
   279,'COTEGI-BA230', 230.0000,  1,  200,    1,    1,   0.986000,   -40.0000
   284,'CAMAC4-BA230', 230.0000,  1,  200,    1,    1,   1.005000,   -38.0000
   288,'IBICOA-BA230', 230.0000,  1,  200,    1,    1,   1.002000,   -52.0000
   289,'SAPEAC-BA230', 230.0000,  1,  200,    1,    1,   1.012000,   -40.0000
   290,'PARAIS-RN230', 230.0000,  1,  200,    1,    1,   0.994000,     9.8500
   300,'PAF3-B-BA230', 230.0000,  1,  200,    1,    1,   1.015000,    -7.3000
   325,'FORTA2-CE230', 230.0000,  1,  200,    1,    1,   0.993000,    -4.9000
   326,'SOBRA3-CE230', 230.0000,  1,  200,    1,    1,   0.991000,   -12.0000
   327,'FORTAGUTE013',  13.8000,  2,  200,    1,    1,   1.006000,     2.3400
   329,'BESPER-MA230', 230.0000,  1,  200,    1,    1,   1.014000,   -25.0000
   332,'SLUIS2-MA230', 230.0000,  1,  200,    1,    1,   0.994000,   -31.0000
   339,'TERCEGUTE013',  13.8000,  2,  200,    1,    1,   1.002000,     4.3500
   346,'NATAL3-RN230', 230.0000,  1,  200,    1,    1,   0.998000,     6.5800
   349,'GARANH-PE230', 230.0000,  1,  200,    1,    1,   1.005000,    -9.6000
   353,'SUAPE2-PE230', 230.0000,  1,  200,    1,    1,   1.007000,   -11.0000
   355,'MCHAP2-BA230', 230.0000,  1,  200,    1,    1,   0.997000,   -28.0000
   364,'LNOVA2-RN230', 230.0000,  1,  200,    1,    1,   0.996000,    13.5000
   365,'IBIAP2-CE230', 230.0000,  1,  200,    1,    1,   1.013000,   -18.0000
   385,'BJLAP2-BA230', 230.0000,  1,  200,    1,    1,   0.994000,   -48.0000
   387,'REGUA--BA230', 230.0000,  1,  200,    1,    1,   1.007000,   -52.0000
   407,'RG-CO1CAP500', 500.0000,  2,  200,    1,    1,   1.022000,   -20.0000
   433,'VDOACUUTE013',  13.8000,  2,  200,    1,    1,   1.003000,    24.4000
   453,'RG-CO2CAP500', 500.0000,  2,  200,    1,    1,   1.021000,   -25.0000
   472,'OLINDI-BA230', 230.0000,  1,  200,    1,    1,   1.007000,   -33.0000
   500,'PAF4---BA500', 500.0000,  1,  200,    1,    1,   1.040000,    -8.3000
   505,'L.GONZ-PE500', 500.0000,  1,  200,    1,    1,   1.048000,    -9.6000
   506,'SOBRAD-BA500', 500.0000,  1,  200,    1,    1,   1.056000,   -18.0000
   521,'MILAGR-CE500', 500.0000,  1,  200,    1,    1,   1.020000,    -5.5000
   523,'JCMR3--RN500', 500.0000,  1,  200,    1,    1,   1.038000,    13.1000
   525,'FORTA2-CE500', 500.0000,  1,  200,    1,    1,   1.004000,    -4.2000
   526,'SOBRA3-CE500', 500.0000,  1,  200,    1,    1,   1.031000,   -13.0000
   528,'TERES2-PI500', 500.0000,  1,  200,    1,    1,   1.054000,   -27.0000
   529,'BESPER-MA500', 500.0000,  1,  200,    1,    1,   1.049000,   -24.0000
   532,'SLUIS2-MA500', 500.0000,  1,  200,    1,    1,   1.004000,   -30.0000
   537,'S.J.PI-PI500', 500.0000,  1,  200,    1,    1,   1.061000,   -21.0000
   538,'P.DUTR-MA500', 500.0000,  1,  200,    1,    1,   1.057000,   -32.0000
   539,'IMPERA-MA500', 500.0000,  2,  200,    1,    1,   1.067000,   -42.0000
   540,'ANGEL2-PE500', 500.0000,  1,  200,    1,    1,   1.047000,    -9.5000
   541,'RECIFE-PE500', 500.0000,  1,  200,    1,    1,   1.029000,   -11.0000
   542,'MESSIA-AL500', 500.0000,  1,  200,    1,    1,   1.015000,   -15.0000
   544,'CGRD3--PB500', 500.0000,  1,  200,    1,    1,   1.022000,    -1.9000
   549,'GARANH-PE500', 500.0000,  1,  200,    1,    1,   1.049000,    -9.1000
   555,'MCHAP2-BA500', 500.0000,  1,  200,    1,    1,   1.032000,   -30.0000
   559,'ACAILA-MA500', 500.0000,  1,  200,    1,    1,   1.052000,   -41.0000
   564,'SALOPE-MA500', 500.0000,  1,  200,    1,    1,   1.049000,   -28.0000
   565,'MIRAND-MA500', 500.0000,  1,  200,    1,    1,   1.021000,   -31.0000
   566,'PAU-FE-PE500', 500.0000,  1,  200,    1,    1,   1.034000,    -9.7000
   573,'JARDIM-SE500', 500.0000,  1,  200,    1,    1,   1.034000,   -18.0000
   582,'OLINDI-BA500', 500.0000,  1,  200,    1,    1,   1.017000,   -25.0000
   584,'CAMAC4-BA500', 500.0000,  1,  200,    1,    1,   1.003000,   -35.0000
   585,'BJLAP2-BA500', 500.0000,  2,  200,    1,    1,   1.034000,   -47.0000
   587,'R.EGUA-BA500', 500.0000,  2,  200,    1,    1,   1.036000,   -51.0000
   711,'IM-CO1CAP500', 500.0000,  2,  200,    1,    1,   1.015000,   -33.0000
   715,'IM-CO2CAP500', 500.0000,  2,  200,    1,    1,   1.012000,   -33.0000
   736,'IP2TCS-MA500', 500.0000,  1,  200,    1,    1,   1.042000,   -39.0000
   846,'BARRER-BA500', 500.0000,  1,  200,    1,    1,   1.029000,   -46.0000
   857,'RE-LUZCAP500', 500.0000,  2,  200,    1,    1,   1.028000,   -43.0000
 11001,'PPECE1UTE020',  20.0000,  2,  200,    1,    1,   1.004000,     4.7500
 11003,'CSP---UTE013',  13.8000,  4,  200,    1,    1,   1.003000,    -7.0000
 11010,'PPECE2UTE020',  20.0000,  2,  200,    1,    1,   1.003000,     4.8600
 11050,'B.JESU-PI230', 230.0000,  1,  200,    1,    1,   1.042000,   -37.0000
 11149,'PSER1VUTE024',  23.0000,  2,  200,    1,    1,   0.989000,   -11.0000
 11150,'PSER1GUTE025',  23.0000,  2,  200,    1,    1,   0.984000,   -13.0000
 11225,'PECEM2-CE230', 230.0000,  1,  200,    1,    1,   0.999000,    -2.8000
 11246,'CMRIM2-RN230', 230.0000,  1,  200,    1,    1,   1.000000,    10.7000
 11260,'GOURO2-BA230', 230.0000,  1,  200,    1,    1,   1.001000,   -35.0000
 11261,'OUROL2-BA230', 230.0000,  1,  200,    1,    1,   1.003000,   -22.0000
 11265,'AÇU3---RN230', 230.0000,  1,  200,    1,    1,   1.005000,    14.1000
 11394,'IGAPO3-BA230', 230.0000,  1,  200,    1,    1,   1.004000,   -52.0000
 11500,'SLUZI2-PB500', 500.0000,  1,  200,    1,    1,   1.041000,     0.0060
 11525,'PECEM2-CE500', 500.0000,  1,  200,    1,    1,   1.017000,    -5.4000
 11546,'CMRIM2-RN500', 500.0000,  1,  200,    1,    1,   1.045000,    10.1000
 11560,'GOURO2-BA500', 500.0000,  1,  200,    1,    1,   1.045000,   -36.0000
 11561,'OUROL2-BA500', 500.0000,  1,  200,    1,    1,   1.036000,   -25.0000
 11563,'M.NETO-BA500', 500.0000,  2,  200,    1,    1,   1.031000,   -64.0000
 11582,'JUAZE3-BA500', 500.0000,  1,  200,    1,    1,   1.053000,   -16.0000
 11594,'IGAPO3-BA500', 500.0000,  2,  200,    1,    1,   1.037000,   -54.0000
 11612,'POCOE3-BA500', 500.0000,  2,  200,    1,    1,   1.029000,   -52.0000
 12201,'CNOVO2-PI230', 230.0000,  1,  200,    1,    1,   1.003000,    -7.6000
 12312,'QNOVA2-PI500', 500.0000,  1,  200,    1,    1,   1.042000,   -17.0000
 12318,'BURITI-BA500', 500.0000,  1,  200,    1,    1,   1.078000,   -34.0000
 12321,'JCMR3--RN230', 230.0000,  1,  200,    1,    1,   1.000000,    15.0000
 12501,'CNOVO2-PI500', 500.0000,  1,  200,    1,    1,   1.047000,   -13.0000
 12901,'PARNAI-PI500', 500.0000,  1,  200,    1,    1,   1.020000,   -20.0000
 12902,'ACARA3-CE500', 500.0000,  1,  200,    1,    1,   1.021000,   -13.0000
 12905,'TIANG2-CE500', 500.0000,  1,  200,    1,    1,   1.033000,   -17.0000
 12999,'JPSII--PB230', 230.0000,  1,  200,    1,    1,   0.990000,   -13.0000
 13003,'MARA4GUTE013',  13.8000,  2,  200,    1,    1,   1.012000,   -21.0000
 13008,'MARA5GUTE013',  13.8000,  2,  200,    1,    1,   1.011000,   -22.0000
 13016,'MARA3GUTE013',  13.8000,  2,  200,    1,    1,   1.000000,   -21.0000
 13022,'MARA3VUTE013',  13.8000,  2,  200,    1,    1,   0.993000,   -20.0000
 13029,'N.VE.GUTE013',  13.8000,  2,  200,    1,    1,   1.008000,   -20.0000
 13033,'PARNAVUTE013',  18.0000,  2,  200,    1,    1,   1.028000,   -25.0000
 14480,'S.LUZ3-MA500', 500.0000,  1,  200,    1,    1,   1.010000,   -35.0000
 55412,'ACARA2-CE230', 230.0000,  1,  200,    1,    1,   0.977000,   -11.0000
 55443,'ITAREM-CE034',  34.5000,  2,  200,    1,    1,   0.998000,    -5.8000
 55765,'DNPARA-CE034',   1.0000,  2,  200,    1,    1,   1.012000,     4.2200
 55775,'CFAISA-CE034',  34.5000,  2,  200,    1,    1,   0.997000,     4.8000
 55813,'SERROT-CE034',  34.5000,  2,  200,    1,    1,   0.997000,     6.9400
 56094,'ALEX---CE034',  34.5000,  2,  200,    1,    1,   1.000000,    10.6000
 56285,'AMAZB1-RN034',  34.5000,  2,  200,    1,    1,   0.998000,    22.8000
 56311,'MEL2---RN034',  34.5000,  2,  200,    1,    1,   1.000000,    31.5000
 56455,'ALEGRI-RN034',  34.5000,  2,  200,    1,    1,   0.996000,    21.5000
 56477,'MEL1---RN034',  34.5000,  2,  200,    1,    1,   1.000000,    33.2000
 56478,'MEL2---RN034',  34.5000,  2,  200,    1,    1,   1.000000,    17.0000
 56515,'VSTERZ-RN034',  34.5000,  2,  200,    1,    1,   0.999000,    37.5000
 56532,'VSRICA-RN034',  34.5000,  2,  200,    1,    1,   0.999000,    34.5000
 56574,'SCLARA-RN034',  34.5000,  2,  200,    1,    1,   0.998000,    25.2000
 56606,'ASABRA-RN034',  34.5000,  2,  200,    1,    1,   0.997000,    20.6000
 56622,'C.PRE2-RN034',  34.5000,  2,  200,    1,    1,   0.999000,    22.4000
 56691,'CUTIA--RN034',  34.5000,  2,  200,    1,    1,   0.998000,    26.9000
 56699,'CUMARU-RN034',  34.5000,  2,  200,    1,    1,   0.998000,    21.7000
 56720,'CPFL---RN034',  34.5000,  2,  200,    1,    1,   0.998000,    21.9000
 56731,'JERUSA-RN034',  34.5000,  2,  200,    1,    1,   1.000000,    18.5000
 56749,'RIOVT2-RN034',  34.5000,  2,  200,    1,    1,   1.000000,    15.9000
 56755,'ARIZON-BA034',  34.5000,  2,  200,    1,    1,   1.000000,   -15.0000
 56760,'MRONCA-RN034',  34.5000,  2,  200,    1,    1,   0.998000,    20.8000
 56766,'ANGICO-RN034',  34.5000,  2,  200,    1,    1,   0.997000,    21.0000
 56778,'MACAU--RN034',  34.5000,  2,  200,    1,    1,   0.998000,    21.9000
 57740,'SRMNOV-RN034',  34.5000,  2,  200,    1,    1,   0.998000,    16.0000
 58007,'CAETE2-PE034',  34.5000,  2,  200,    1,    1,   0.998000,    -3.7000
 58027,'SCLEME-PE034',  34.5000,  2,  200,    1,    1,   0.998000,     0.1970
 58048,'TUCANO-BA034',  34.5000,  2,  200,    1,    1,   1.000000,    -8.9000
 58144,'BLMNTE-PE034',  34.5000,  2,  200,    1,    1,   1.004000,     2.5500
 58160,'LABAR1-PI034',  34.5000,  2,  200,    1,    1,   0.998000,   -19.0000
 58194,'LGVN-A-PI034',  34.5000,  2,  200,    1,    1,   1.000000,   -14.0000
 58196,'LGVN-B-PI034',  34.5000,  2,  200,    1,    1,   1.000000,   -14.0000
 58197,'LGVN-C-PI034',  34.5000,  2,  200,    1,    1,   0.998000,   -12.0000
 58207,'CHAPA1-PI034',  34.5000,  2,  200,    1,    1,   0.997000,    -0.8100
 58216,'CHAPA2-PI034',  34.5000,  2,  200,    1,    1,   0.998000,    -1.5000
 58226,'CHAPA3-PI034',  34.5000,  2,  200,    1,    1,   0.998000,     1.0100
 58233,'CHAPA4-PI034',  34.5000,  2,  200,    1,    1,   0.998000,     1.3900
 58239,'VEDPI2-PI034',  34.5000,  2,  200,    1,    1,   0.998000,    -2.7000
 58249,'CDNHA1-PI034',  34.5000,  2,  200,    1,    1,   0.999000,    -2.7000
 58272,'SBASIL-PI034',  34.5000,  2,  200,    1,    1,   0.997000,     7.3000
 58289,'NORTE--PB034',  34.5000,  2,  200,    1,    1,   0.997000,     6.7800
 58294,'VEDPI3-PI034',  34.5000,  2,  200,    1,    1,   0.998000,    -2.4000
 58296,'SUL2---PB034',  34.5000,  2,  200,    1,    1,   0.997000,     7.6400
 58315,'OITIS--PI034',  34.5000,  2,  200,    1,    1,   0.999000,   -13.0000
 58507,'SSERID-PB034',  34.5000,  2,  200,    1,    1,   1.008000,     3.1100
 58513,'SSER1A-PB034',  34.5000,  2,  200,    1,    1,   1.000000,     4.0100
 58514,'OESRDO-RN034',  34.5000,  2,  200,    1,    1,   0.999000,     3.4800
 58624,'DELFIN-BA034',  34.5000,  2,  200,    1,    1,   0.999000,    -5.2000
 58690,'FUTURA-BA034',  34.5000,  2,  200,    1,    1,   1.006000,    -4.0000
 58786,'LGVEN3-PI034',  34.5000,  2,  200,    1,    1,   0.999000,   -12.0000
 58806,'C.FORM-BA034',  34.5000,  2,  200,    1,    1,   0.998000,   -15.0000
 58824,'UMBURA-BA034',  34.5000,  2,  200,    1,    1,   0.998000,   -14.0000
 58832,'C.LAR1-BA034',  34.5000,  2,  200,    1,    1,   0.998000,   -12.0000
 58852,'BABILS-BA034',  34.5000,  2,  200,    1,    1,   0.998000,   -15.0000
 58871,'C.LAR2-BA034',  34.5000,  2,  200,    1,    1,   0.999000,   -13.0000
 59002,'FLARG2-BA034',  34.5000,  2,  200,    1,    1,   0.998000,    -0.5700
 59057,'MCHAPS-BA034',  34.5000,  2,  200,    1,    1,   0.997000,   -23.0000
 59076,'SBABIL-BA034',  34.5000,  2,  200,    1,    1,   0.997000,   -17.0000
 59087,'MCHAS2-BA034',  34.5000,  2,  200,    1,    1,   1.000000,   -27.0000
 59130,'VSEUGE-BA034',  34.5000,  2,  200,    1,    1,   0.999000,   -23.0000
 59176,'SGONCA-PI034',  34.5000,  2,  200,    1,    1,   1.004000,     2.3100
 59189,'SDSER3-BA034',  34.5000,  2,  200,    1,    1,   1.001000,   -41.0000
 59204,'VSVTR--BA034',  34.5000,  2,  200,    1,    1,   0.998000,   -26.0000
 59316,'ARACAS-BA034',  34.5000,  2,  200,    1,    1,   0.998000,   -47.0000
 59512,'VBAHI3-BA034',  34.5000,  2,  200,    1,    1,   0.998000,   -20.0000
 59521,'AURA---BA034',  34.5000,  2,  200,    1,    1,   0.998000,   -46.0000
 59524,'CAETNO-BA034',  34.5000,  2,  200,    1,    1,   0.998000,   -47.0000
 70001,'FICT01      ', 500.0000,  1,  200,    1,    1,   1.030000,   -22.0000
 70002,'FICT02      ', 500.0000,  1,  200,    1,    1,   0.996000,    -8.8000
 70003,'FICT03      ', 500.0000,  1,  200,    1,    1,   1.019000,   -34.0000
 70004,'FICT04      ', 500.0000,  1,  200,    1,    1,   0.992000,   -48.0000
 70005,'FICT05      ', 500.0000,  1,  200,    1,    1,   1.011000,   -52.0000
 70006,'FICT06      ', 500.0000,  1,  200,    1,    1,   1.003000,    10.8000
 70007,'FICT07      ', 500.0000,  1,  200,    1,    1,   1.015000,    13.8000
 70008,'FICT08      ', 500.0000,  1,  200,    1,    1,   1.000000,    10.8000
 70009,'FICT09      ', 500.0000,  1,  200,    1,    1,   0.996000,   -49.0000
 70010,'FICT10      ', 500.0000,  1,  200,    1,    1,   1.013000,   -42.0000
 70011,'FICT10      ', 500.0000,  1,  200,    1,    1,   1.011000,   -52.0000
 70012,'FICT12      ', 500.0000,  1,  200,    1,    1,   1.043000,   -38.0000
 70014,'FICT14      ', 500.0000,  1,  200,    1,    1,   1.037000,   -13.0000
 70015,'FICT15      ', 230.0000,  1,  200,    1,    1,   0.994000,    -2.7000
 70016,'FICT16      ', 230.0000,  1,  200,    1,    1,   0.991000,    -3.5000
 70018,'FICT18      ', 230.0000,  1,  200,    1,    1,   0.986000,   -40.0000
 70019,'FICT19      ', 230.0000,  1,  200,    1,    1,   1.021000,    -5.1000
 70021,'FICT21      ', 230.0000,  1,  200,    1,    1,   1.020000,   -13.0000
 70022,'FICT22      ', 230.0000,  1,  200,    1,    1,   1.056000,   -22.0000
 70023,'FICT23      ', 230.0000,  1,  200,    1,    1,   1.069000,   -22.0000
 0  / END OF BUS DATA, BEGIN LOAD DATA
   200,'1 ', 1, 200,    1,    101.300,     65.200,     0.000,       0.000,       0.000,     0.000,   1, 1
   202,'1 ', 1, 200,    1,    180.800,     80.900,     0.000,       0.000,       0.000,     0.000,   1, 1
   203,'1 ', 1, 200,    1,    -19.100,      0.000,     0.000,       0.000,       0.000,     0.000,   1, 1
   206,'1 ', 1, 200,    1,   -218.000,      0.000,     0.000,       0.000,       0.000,     0.000,   1, 1
   218,'1 ', 1, 200,    1,    100.300,     77.000,     0.000,       0.000,       0.000,     0.000,   1, 1
   220,'1 ', 1, 200,    1,    245.600,     49.100,     0.000,       0.000,       0.000,     0.000,   1, 1
   221,'1 ', 1, 200,    1,    476.600,     15.000,     0.000,       0.000,       0.000,     0.000,   1, 1
   222,'1 ', 1, 200,    1,    143.800,    -20.500,     0.000,       0.000,       0.000,     0.000,   1, 1
   224,'1 ', 1, 200,    1,    -53.000,      0.000,     0.000,       0.000,       0.000,     0.000,   1, 1
   228,'1 ', 1, 200,    1,    463.000,    107.000,     0.000,       0.000,       0.000,     0.000,   1, 1
   231,'1 ', 1, 200,    1,    410.500,   -127.000,     0.000,       0.000,       0.000,     0.000,   1, 1
   237,'1 ', 1, 200,    1,    114.400,     23.100,     0.000,       0.000,       0.000,     0.000,   1, 1
   238,'1 ', 1, 200,    1,    168.200,    -39.000,     0.000,       0.000,       0.000,     0.000,   1, 1
   239,'1 ', 1, 200,    1,     76.000,    -56.000,     0.000,       0.000,       0.000,     0.000,   1, 1
   240,'1 ', 1, 200,    1,    390.500,    -59.000,     0.000,       0.000,       0.000,     0.000,   1, 1
   241,'1 ', 1, 200,    1,    714.800,    183.000,     0.000,       0.000,       0.000,     0.000,   1, 1
   244,'1 ', 1, 200,    1,    300.700,    152.000,     0.000,       0.000,       0.000,     0.000,   1, 1
   247,'1 ', 1, 200,    1,    217.900,    222.000,     0.000,       0.000,       0.000,     0.000,   1, 1
   250,'1 ', 1, 200,    1,    347.500,    114.200,     0.000,       0.000,       0.000,     0.000,   1, 1
   251,'1 ', 1, 200,    1,   -101.000,      0.000,     0.000,       0.000,       0.000,     0.000,   1, 1
   258,'1 ', 1, 200,    1,    196.400,     18.100,     0.000,       0.000,       0.000,     0.000,   1, 1
   259,'1 ', 1, 200,    1,    322.500,    -27.000,     0.000,       0.000,       0.000,     0.000,   1, 1
   260,'1 ', 1, 200,    1,    426.900,    151.200,     0.000,       0.000,       0.000,     0.000,   1, 1
   269,'1 ', 1, 200,    1,    174.100,     39.000,     0.000,       0.000,       0.000,     0.000,   1, 1
   272,'1 ', 1, 200,    1,    459.200,     17.000,     0.000,       0.000,       0.000,     0.000,   1, 1
   273,'1 ', 1, 200,    1,    509.600,    114.800,     0.000,       0.000,       0.000,     0.000,   1, 1
   276,'1 ', 1, 200,    1,    291.700,    -54.000,     0.000,       0.000,       0.000,     0.000,   1, 1
   279,'1 ', 1, 200,    1,    661.300,    152.000,     0.000,       0.000,       0.000,     0.000,   1, 1
   284,'1 ', 1, 200,    1,    438.600,     84.000,     0.000,       0.000,       0.000,     0.000,   1, 1
   288,'1 ', 1, 200,    1,     94.900,     44.000,     0.000,       0.000,       0.000,     0.000,   1, 1
   289,'1 ', 1, 200,    1,    393.800,   -177.000,     0.000,       0.000,       0.000,     0.000,   1, 1
   290,'1 ', 1, 200,    1,     49.500,     11.100,     0.000,       0.000,       0.000,     0.000,   1, 1
   300,'1 ', 1, 200,    1,    136.200,     34.500,     0.000,       0.000,       0.000,     0.000,   1, 1
   325,'1 ', 1, 200,    1,    926.500,   -242.000,     0.000,       0.000,       0.000,     0.000,   1, 1
   326,'1 ', 1, 200,    1,    -19.500,      0.000,     0.000,       0.000,       0.000,     0.000,   1, 1
   329,'1 ', 1, 200,    1,    -25.700,      0.000,     0.000,       0.000,       0.000,     0.000,   1, 1
   332,'1 ', 1, 200,    1,    475.300,    417.900,     0.000,       0.000,       0.000,     0.000,   1, 1
   346,'1 ', 1, 200,    1,    323.300,     40.900,     0.000,       0.000,       0.000,     0.000,   1, 1
   349,'1 ', 1, 200,    1,    -34.800,      0.000,     0.000,       0.000,       0.000,     0.000,   1, 1
   353,'1 ', 1, 200,    1,    337.800,    -35.000,     0.000,       0.000,       0.000,     0.000,   1, 1
   355,'1 ', 1, 200,    1,   -321.000,      0.000,     0.000,       0.000,       0.000,     0.000,   1, 1
   364,'1 ', 1, 200,    1,   -257.000,      0.000,     0.000,       0.000,       0.000,     0.000,   1, 1
   365,'1 ', 1, 200,    1,    -15.800,      0.000,     0.000,       0.000,       0.000,     0.000,   1, 1
   385,'1 ', 1, 200,    1,     86.400,    -18.000,     0.000,       0.000,       0.000,     0.000,   1, 1
   387,'1 ', 1, 200,    1,    115.200,    -64.000,     0.000,       0.000,       0.000,     0.000,   1, 1
   407,'1 ', 1, 200,    1,    756.300,   -123.000,     0.000,       0.000,       0.000,     0.000,   1, 1
   453,'1 ', 1, 200,    1,    734.000,   -153.000,     0.000,       0.000,       0.000,     0.000,   1, 1
   472,'1 ', 1, 200,    1,     93.400,     16.300,     0.000,       0.000,       0.000,     0.000,   1, 1
   500,'1 ', 1, 200,    1,     -4.300,      0.000,     0.000,       0.000,       0.000,     0.000,   1, 1
   505,'1 ', 1, 200,    1,     -5.800,      0.000,     0.000,       0.000,       0.000,     0.000,   1, 1
   506,'1 ', 1, 200,    1,     23.700,    126.800,     0.000,       0.000,       0.000,     0.000,   1, 1
   521,'1 ', 1, 200,    1,    146.900,    -80.000,     0.000,       0.000,       0.000,     0.000,   1, 1
   523,'1 ', 1, 200,    1,  -1012.000,      0.000,     0.000,       0.000,       0.000,     0.000,   1, 1
   525,'1 ', 1, 200,    1,    190.800,    228.000,     0.000,       0.000,       0.000,     0.000,   1, 1
   528,'1 ', 1, 200,    1,    125.000,      0.000,     0.000,       0.000,       0.000,     0.000,   1, 1
   529,'1 ', 1, 200,    1,     26.300,     59.600,     0.000,       0.000,       0.000,     0.000,   1, 1
   532,'1 ', 1, 200,    1,      6.900,     51.000,     0.000,       0.000,       0.000,     0.000,   1, 1
   537,'1 ', 1, 200,    1,  -1538.000,      0.000,     0.000,       0.000,       0.000,     0.000,   1, 1
   538,'1 ', 1, 200,    1,   -159.000,      0.000,     0.000,       0.000,       0.000,     0.000,   1, 1
   539,'1 ', 1, 200,    1,     86.700,      0.000,     0.000,       0.000,       0.000,     0.000,   1, 1
   540,'1 ', 1, 200,    1,      5.800,      0.400,     0.000,       0.000,       0.000,     0.000,   1, 1
   541,'1 ', 1, 200,    1,     -0.900,      0.000,     0.000,       0.000,       0.000,     0.000,   1, 1
   542,'1 ', 1, 200,    1,    391.100,    -40.000,     0.000,       0.000,       0.000,     0.000,   1, 1
   544,'1 ', 1, 200,    1,    -10.900,      0.000,     0.000,       0.000,       0.000,     0.000,   1, 1
   555,'1 ', 1, 200,    1,     -5.410,      0.000,     0.000,       0.000,       0.000,     0.000,   1, 1
   559,'1 ', 1, 200,    1,    862.500,    130.000,     0.000,       0.000,       0.000,     0.000,   1, 1
   564,'1 ', 1, 200,    1,   -141.000,      0.000,     0.000,       0.000,       0.000,     0.000,   1, 1
   565,'1 ', 1, 200,    1,   -278.000,      0.000,     0.000,       0.000,       0.000,     0.000,   1, 1
   573,'1 ', 1, 200,    1,    -94.600,      0.000,     0.000,       0.000,       0.000,     0.000,   1, 1
   582,'1 ', 1, 200,    1,    -72.400,      0.000,     0.000,       0.000,       0.000,     0.000,   1, 1
   584,'1 ', 1, 200,    1,    349.000,    100.000,     0.000,       0.000,       0.000,     0.000,   1, 1
   585,'1 ', 1, 200,    1,      0.000,    103.700,     0.000,       0.000,       0.000,     0.000,   1, 1
   587,'1 ', 1, 200,    1,     53.900,    -15.100,     0.000,       0.000,       0.000,     0.000,   1, 1
   846,'1 ', 1, 200,    1,    105.600,    535.000,     0.000,       0.000,       0.000,     0.000,   1, 1
 11050,'1 ', 1, 200,    1,     35.400,    -40.000,     0.000,       0.000,       0.000,     0.000,   1, 1
 11225,'1 ', 1, 200,    1,   -235.000,      0.000,     0.000,       0.000,       0.000,     0.000,   1, 1
 11246,'1 ', 1, 200,    1,   -138.000,      0.000,     0.000,       0.000,       0.000,     0.000,   1, 1
 11260,'1 ', 1, 200,    1,    -39.200,      0.000,     0.000,       0.000,       0.000,     0.000,   1, 1
 11261,'1 ', 1, 200,    1,    -10.700,      0.000,     0.000,       0.000,       0.000,     0.000,   1, 1
 11265,'1 ', 1, 200,    1,    -94.300,      0.000,     0.000,       0.000,       0.000,     0.000,   1, 1
 11394,'1 ', 1, 200,    1,   -407.000,      0.000,     0.000,       0.000,       0.000,     0.000,   1, 1
 11500,'1 ', 1, 200,    1,    -91.800,      0.000,     0.000,       0.000,       0.000,     0.000,   1, 1
 11525,'1 ', 1, 200,    1,    -25.300,      0.000,     0.000,       0.000,       0.000,     0.000,   1, 1
 11546,'1 ', 1, 200,    1,    -48.100,      0.000,     0.000,       0.000,       0.000,     0.000,   1, 1
 11560,'1 ', 1, 200,    1,    -60.100,      0.000,     0.000,       0.000,       0.000,     0.000,   1, 1
 11561,'1 ', 1, 200,    1,   -106.000,      0.000,     0.000,       0.000,       0.000,     0.000,   1, 1
 11563,'1 ', 1, 200,    1,     37.600,      0.000,     0.000,       0.000,       0.000,     0.000,   1, 1
 11582,'1 ', 1, 200,    1,    -15.200,      0.000,     0.000,       0.000,       0.000,     0.000,   1, 1
 11612,'1 ', 1, 200,    1,     57.600,      0.000,     0.000,       0.000,       0.000,     0.000,   1, 1
 12201,'1 ', 1, 200,    1,     64.700,      0.000,     0.000,       0.000,       0.000,     0.000,   1, 1
 12312,'1 ', 1, 200,    1,    -94.300,      0.000,     0.000,       0.000,       0.000,     0.000,   1, 1
 12318,'1 ', 1, 200,    1,     26.700,      0.000,     0.000,       0.000,       0.000,     0.000,   1, 1
 12321,'1 ', 1, 200,    1,   -375.000,      0.000,     0.000,       0.000,       0.000,     0.000,   1, 1
 12501,'1 ', 1, 200,    1,    -38.100,      0.000,     0.000,       0.000,       0.000,     0.000,   1, 1
 12901,'1 ', 1, 200,    1,    -68.900,      0.000,     0.000,       0.000,       0.000,     0.000,   1, 1
 12902,'1 ', 1, 200,    1,    -29.000,      0.000,     0.000,       0.000,       0.000,     0.000,   1, 1
 12905,'1 ', 1, 200,    1,    -31.100,      0.000,     0.000,       0.000,       0.000,     0.000,   1, 1
 12999,'1 ', 1, 200,    1,    420.100,    168.800,     0.000,       0.000,       0.000,     0.000,   1, 1
 14480,'1 ', 1, 200,    1,    159.600,    -14.000,     0.000,       0.000,       0.000,     0.000,   1, 1
 55412,'1 ', 1, 200,    1,    -80.700,      0.000,     0.000,       0.000,       0.000,     0.000,   1, 1
 0  / END OF LOAD DATA, BEGIN FIXED SHUNT DATA
   200,' 1 ',  1,      0.000,    130.000
   206,' 1 ',  1,      0.000,    -80.000
   220,' 1 ',  1,      0.000,    105.000
   221,' 1 ',  1,      0.000,     50.000
   228,' 1 ',  1,      0.000,    -80.000
   237,' 1 ',  1,      0.000,     90.000
   258,' 1 ',  1,      0.000,     60.000
   260,' 1 ',  1,      0.000,     66.000
   273,' 1 ',  1,      0.000,     80.000
   300,' 1 ',  1,      0.000,     96.000
   326,' 1 ',  1,      0.000,    -77.000
   346,' 1 ',  1,      0.000,     90.000
   349,' 1 ',  1,      0.000,    -55.000
   353,' 1 ',  1,      0.000,   -200.000
   355,' 1 ',  1,      0.000,    -45.000
   364,' 1 ',  1,      0.000,    -55.000
   365,' 1 ',  1,      0.000,   -110.000
   407,' 1 ',  1,      0.000,    500.000
   453,' 1 ',  1,      0.000,    500.000
   472,' 1 ',  1,      0.000,     65.000
   500,' 1 ',  1,      0.000,    100.000
   505,' 1 ',  1,      0.000,   -150.000
   523,' 1 ',  1,      0.000,    250.000
   525,' 1 ',  1,      0.000,   -150.000
   526,' 1 ',  1,      0.000,   -100.000
   528,' 1 ',  1,      0.000,     50.000